-------------------------------------------------------
          Amber 22 SANDER                              2022
          -------------------------------------------------------

  [-O]verwriting output

File Assignments:

 Here is the input file:

 single point calc.
 &cntrl
   imin=0, nstlim=1000000,
   irest=1, ntx=5,
   ntt=1, temp0=300,
   ntb=2, ntp=1,barostat=2,
   ntc=2, ntf=2, tol=0.000001,
   cut=9.,
   ntpr=1000, ntwr=1000, ntwx=1000,
   dt=0.001,
   ipgm=1,
 /
 &ewald
  skinnb=1.,ew_coeff=0.4,nfft1=50,nfft2=50,nfft3=50,order=8,vdwmeth=0
 /
 &pol_gauss
   pol_gauss_verbose=0,ee_dsum_cut=9.0,
   dipole_scf_tol=0.01,dipole_scf_init=3,dipole_scf_init_order=2,dipole_scf_init_step=4,
   scf_solv_opt=3,scf_sor_niter=100,scf_sor_coefficient=0.65,
   scf_cg_niter=50,scf_local_niter=3,scf_local_cut=4.0
 /

--------------------------------------------------------------------------------
   1.  RESOURCE   USE:
--------------------------------------------------------------------------------

 getting box info from netcdf restart file
 NATOM  =    1536 NTYPES =       2 NBONH =    1536 MBONA  =       0
 NTHETH =       0 MTHETA =       0 NPHIH =       0 MPHIA  =       0
 NHPARM =       0 NPARM  =       0 NNB   =    2048 NRES   =     512
 NBONA  =       0 NTHETA =       0 NPHIA =       0 NUMBND =       2
 NUMANG =       0 NPTRA  =       0 NATYP =       2 NPHB   =       0
 IFBOX  =       2 NMXRS  =       3 IFCAP =       0 NEXTRA =       0
 NCOPY  =       0

     BOX TYPE: TRUNCATED OCTAHEDRON

--------------------------------------------------------------------------------
   2.  CONTROL  DATA  FOR  THE  RUN
--------------------------------------------------------------------------------

TP3

General flags:
     imin    =       0, nmropt  =       0

Nature and format of input:
     ntx     =       5, irest   =       1, ntrx    =       1

Nature and format of output:
     ntxo    =       2, ntpr    =    1000, ntrx    =       1, ntwr    =    1000
     iwrap   =       0, ntwx    =    1000, ntwv    =       0, ntwe    =       0
     ioutfm  =       1, ntwprt  =       0, idecomp =       0, rbornstat=      0

Potential function:
     ntf     =       2, ntb     =       2, igb     =       0, nsnb    =      25
     ipol    =       0, gbsa    =       0, iesp    =       0
     dielc   =   1.00000, cut     =   9.00000, intdiel =   1.00000

Frozen or restrained atoms:
     ibelly  =       0, ntr     =       0

Molecular dynamics:
     nstlim  =   1000000, nscm    =      1000, nrespa  =         1
     t       =   0.00000, dt      =   0.00100, vlimit  =  20.00000

Berendsen (weak-coupling) temperature regulation:
     temp0   = 300.00000, tempi   =   0.00000, tautp   =   1.00000

Pressure regulation:
     ntp     =       1
     pres0   =   1.00000, comp    =  44.60000, taup    =   1.00000
     Monte-Carlo Barostat:
     mcbarint  =     100

SHAKE:
     ntc     =       2, jfastw  =       0
     tol     =   0.00000

Ewald parameters:
     verbose =       0, ew_type =       0, nbflag  =       1, use_pme =       1
     vdwmeth =       0, eedmeth =       1, netfrc  =       1
     Box X =   26.967   Box Y =   26.967   Box Z =   26.967
     Alpha =  109.471   Beta  =  109.471   Gamma =  109.471
     NFFT1 =   50       NFFT2 =   50       NFFT3 =   50
     Cutoff=    9.000   Tol   =0.395E-07
     Ewald Coefficient =  0.40000
     Interpolation order =    8

--------------------------------------------------------------------------------
   3.  ATOMIC COORDINATES AND VELOCITIES
--------------------------------------------------------------------------------

TP3
 begin time read from input coords =  4706.000 ps

 Number of triangulated 3-point waters found:      512

     Sum of charges from parm topology file =   0.00000000
     Forcing neutrality...

--------------------------------------------------------------------------------
   4.  RESULTS
 NSTEP =     1000   TIME(PS) =    4707.000  TEMP(K) =   262.84  PRESS =  -610.3
 Etot   =   -504132.3518  EKtot   =       801.4875  EPtot      =   -504933.8393
 BOND   =         0.0000  ANGLE   =         0.0000  DIHED      =         0.0000
 1-4 NB =         0.0000  1-4 EEL =         0.0000  VDWAALS    =       910.7571
 EELEC  =   -505844.5964  EHBOND  =         0.0000  RESTRAINT  =         0.0000
 EKCMT  =       411.1844  VIRIAL  =       611.0655  VOLUME     =     15168.4544
                                                    Density    =         1.0098
 Ewald error estimate:   0.0000E+00
 ------------------------------------------------------------------------------

      A V E R A G E S   O V E R 1000000 S T E P S

 NSTEP =  1000000   TIME(PS) =    5706.000  TEMP(K) =   299.81  PRESS =   153.4
 Etot   =   -503753.0051  EKtot   =       914.2254  EPtot      =   -504667.2305
 BOND   =         0.0000  ANGLE   =         0.0000  DIHED      =         0.0000
 1-4 NB =         0.0000  1-4 EEL =         0.0000  VDWAALS    =       869.5162
 EELEC  =   -505536.7466  EHBOND  =         0.0000  RESTRAINT  =         0.0000
 EKCMT  =       457.1803  VIRIAL  =       407.7325  VOLUME     =     15201.0363
                                                    Density    =         1.0078
 Ewald error estimate:   0.0000E+00
 ------------------------------------------------------------------------------

      R M S  F L U C T U A T I O N S

 NSTEP =  1000000   TIME(PS) =    5706.000  TEMP(K) =     6.83  PRESS =   590.7
 Etot   =        26.4426  EKtot   =        20.8351  EPtot      =        28.6490
 BOND   =         0.0000  ANGLE   =         0.0000  DIHED      =         0.0000
 1-4 NB =         0.0000  1-4 EEL =         0.0000  VDWAALS    =        35.0146
 EELEC  =        51.4721  EHBOND  =         0.0000  RESTRAINT  =         0.0000
 EKCMT  =        15.7216  VIRIAL  =       193.2880  VOLUME     =       168.3371
                                                    Density    =         0.0111
 Ewald error estimate:   0.0000E+00
 ------------------------------------------------------------------------------
